/*--------------------------------*- C++ -*----------------------------------*\
| =========                 |                                                 |
| \\      /  F ield         | foam-extend: Open Source CFD                    |
|  \\    /   O peration     | Version:     3.2                                |
|   \\  /    A nd           | Web:         http://www.foam-extend.org         |
|    \\/     M anipulation  |                                                 |
\*---------------------------------------------------------------------------*/
FoamFile
{
    version     2.0;
    format      ascii;
    class       volVectorField;
    object      U;
}
// * * * * * * * * * * * * * * * * * * * * * * * * * * * * * * * * * * * * * //

dimensions      [0 1 -1 0 0 0 0];

internalField   uniform (1 0 0);

boundaryField
{

    frontAndBack
    {
        type            empty;
    }

    inlet
    {
        type        randomProcessFixedValue;
        value       uniform (0 0 0);
        U0          uniform (1 0 0);
        gustDir     uniform (0 1 0);
        scaleFac    1.0;

        circFreq
        List<scalar>
        600
        ( 0.00000000 0.10489458 0.20978916 0.31468374 0.41957832 0.52447290
          0.62936748 0.73426206 0.83915664 0.94405121 1.04894579 1.15384037
          1.25873495 1.36362953 1.46852411 1.57341869 1.67831327 1.78320785
          1.88810243 1.99299701 2.09789159 2.20278617 2.30768075 2.41257533
          2.51746991 2.62236449 2.72725906 2.83215364 2.93704822 3.04194280
          3.14683738 3.25173196 3.35662654 3.46152112 3.56641570 3.67131028
          3.77620486 3.88109944 3.98599402 4.09088860 4.19578318 4.30067776
          4.40557234 4.51046692 4.61536149 4.72025607 4.82515065 4.93004523
          5.03493981 5.13983439 5.24472897 5.34962355 5.45451813 5.55941271
          5.66430729 5.76920187 5.87409645 5.97899103 6.08388561 6.18878019
          6.29367477 6.39856934 6.50346392 6.60835850 6.71325308 6.81814766
          6.92304224 7.02793682 7.13283140 7.23772598 7.34262056 7.44751514
          7.55240972 7.65730430 7.76219888 7.86709346 7.97198804 8.07688262
          8.18177719 8.28667177 8.39156635 8.49646093 8.60135551 8.70625009
          8.81114467 8.91603925 9.02093383 9.12582841 9.23072299 9.33561757
          9.44051215 9.54540673 9.65030131 9.75519589 9.86009047 9.96498504
          10.06987962 10.17477420 10.27966878 10.38456336 10.48945794 10.59435252
          10.69924710 10.80414168 10.90903626 11.01393084 11.11882542 11.22372000
          11.32861458 11.43350916 11.53840374 11.64329832 11.74819289 11.85308747
          11.95798205 12.06287663 12.16777121 12.27266579 12.37756037 12.48245495
          12.58734953 12.69224411 12.79713869 12.90203327 13.00692785 13.11182243
          13.21671701 13.32161159 13.42650617 13.53140075 13.63629532 13.74118990
          13.84608448 13.95097906 14.05587364 14.16076822 14.26566280 14.37055738
          14.47545196 14.58034654 14.68524112 14.79013570 14.89503028 14.99992486
          15.10481944 15.20971402 15.31460860 15.41950317 15.52439775 15.62929233
          15.73418691 15.83908149 15.94397607 16.04887065 16.15376523 16.25865981
          16.36355439 16.46844897 16.57334355 16.67823813 16.78313271 16.88802729
          16.99292187 17.09781645 17.20271102 17.30760560 17.41250018 17.51739476
          17.62228934 17.72718392 17.83207850 17.93697308 18.04186766 18.14676224
          18.25165682 18.35655140 18.46144598 18.56634056 18.67123514 18.77612972
          18.88102430 18.98591887 19.09081345 19.19570803 19.30060261 19.40549719
          19.51039177 19.61528635 19.72018093 19.82507551 19.92997009 20.03486467
          20.13975925 20.24465383 20.34954841 20.45444299 20.55933757 20.66423215
          20.76912672 20.87402130 20.97891588 21.08381046 21.18870504 21.29359962
          21.39849420 21.50338878 21.60828336 21.71317794 21.81807252 21.92296710
          22.02786168 22.13275626 22.23765084 22.34254542 22.44744000 22.55233458
          22.65722915 22.76212373 22.86701831 22.97191289 23.07680747 23.18170205
          23.28659663 23.39149121 23.49638579 23.60128037 23.70617495 23.81106953
          23.91596411 24.02085869 24.12575327 24.23064785 24.33554243 24.44043700
          24.54533158 24.65022616 24.75512074 24.86001532 24.96490990 25.06980448
          25.17469906 25.27959364 25.38448822 25.48938280 25.59427738 25.69917196
          25.80406654 25.90896112 26.01385570 26.11875028 26.22364485 26.32853943
          26.43343401 26.53832859 26.64322317 26.74811775 26.85301233 26.95790691
          27.06280149 27.16769607 27.27259065 27.37748523 27.48237981 27.58727439
          27.69216897 27.79706355 27.90195813 28.00685270 28.11174728 28.21664186
          28.32153644 28.42643102 28.53132560 28.63622018 28.74111476 28.84600934
          28.95090392 29.05579850 29.16069308 29.26558766 29.37048224 29.47537682
          29.58027140 29.68516598 29.79006055 29.89495513 29.99984971 30.10474429
          30.20963887 30.31453345 30.41942803 30.52432261 30.62921719 30.73411177
          30.83900635 30.94390093 31.04879551 31.15369009 31.25858467 31.36347925
          31.46837383 31.57326841 31.67816298 31.78305756 31.88795214 31.99284672
          32.09774130 32.20263588 32.30753046 32.41242504 32.51731962 32.62221420
          32.72710878 32.83200336 32.93689794 33.04179252 33.14668710 33.25158168
          33.35647626 33.46137083 33.56626541 33.67115999 33.77605457 33.88094915
          33.98584373 34.09073831 34.19563289 34.30052747 34.40542205 34.51031663
          34.61521121 34.72010579 34.82500037 34.92989495 35.03478953 35.13968411
          35.24457868 35.34947326 35.45436784 35.55926242 35.66415700 35.76905158
          35.87394616 35.97884074 36.08373532 36.18862990 36.29352448 36.39841906
          36.50331364 36.60820822 36.71310280 36.81799738 36.92289196 37.02778653
          37.13268111 37.23757569 37.34247027 37.44736485 37.55225943 37.65715401
          37.76204859 37.86694317 37.97183775 38.07673233 38.18162691 38.28652149
          38.39141607 38.49631065 38.60120523 38.70609981 38.81099438 38.91588896
          39.02078354 39.12567812 39.23057270 39.33546728 39.44036186 39.54525644
          39.65015102 39.75504560 39.85994018 39.96483476 40.06972934 40.17462392
          40.27951850 40.38441308 40.48930766 40.59420224 40.69909681 40.80399139
          40.90888597 41.01378055 41.11867513 41.22356971 41.32846429 41.43335887
          41.53825345 41.64314803 41.74804261 41.85293719 41.95783177 42.06272635
          42.16762093 42.27251551 42.37741009 42.48230466 42.58719924 42.69209382
          42.79698840 42.90188298 43.00677756 43.11167214 43.21656672 43.32146130
          43.42635588 43.53125046 43.63614504 43.74103962 43.84593420 43.95082878
          44.05572336 44.16061794 44.26551251 44.37040709 44.47530167 44.58019625
          44.68509083 44.78998541 44.89487999 44.99977457 45.10466915 45.20956373
          45.31445831 45.41935289 45.52424747 45.62914205 45.73403663 45.83893121
          45.94382579 46.04872036 46.15361494 46.25850952 46.36340410 46.46829868
          46.57319326 46.67808784 46.78298242 46.88787700 46.99277158 47.09766616
          47.20256074 47.30745532 47.41234990 47.51724448 47.62213906 47.72703364
          47.83192821 47.93682279 48.04171737 48.14661195 48.25150653 48.35640111
          48.46129569 48.56619027 48.67108485 48.77597943 48.88087401 48.98576859
          49.09066317 49.19555775 49.30045233 49.40534691 49.51024149 49.61513607
          49.72003064 49.82492522 49.92981980 50.03471438 50.13960896 50.24450354
          50.34939812 50.45429270 50.55918728 50.66408186 50.76897644 50.87387102
          50.97876560 51.08366018 51.18855476 51.29344934 51.39834392 51.50323849
          51.60813307 51.71302765 51.81792223 51.92281681 52.02771139 52.13260597
          52.23750055 52.34239513 52.44728971 52.55218429 52.65707887 52.76197345
          52.86686803 52.97176261 53.07665719 53.18155177 53.28644634 53.39134092
          53.49623550 53.60113008 53.70602466 53.81091924 53.91581382 54.02070840
          54.12560298 54.23049756 54.33539214 54.44028672 54.54518130 54.65007588
          54.75497046 54.85986504 54.96475962 55.06965419 55.17454877 55.27944335
          55.38433793 55.48923251 55.59412709 55.69902167 55.80391625 55.90881083
          56.01370541 56.11859999 56.22349457 56.32838915 56.43328373 56.53817831
          56.64307289 56.74796747 56.85286204 56.95775662 57.06265120 57.16754578
          57.27244036 57.37733494 57.48222952 57.58712410 57.69201868 57.79691326
          57.90180784 58.00670242 58.11159700 58.21649158 58.32138616 58.42628074
          58.53117532 58.63606990 58.74096447 58.84585905 58.95075363 59.05564821
          59.16054279 59.26543737 59.37033195 59.47522653 59.58012111 59.68501569
          59.78991027 59.89480485 59.99969943 60.10459401 60.20948859 60.31438317
          60.41927775 60.52417232 60.62906690 60.73396148 60.83885606 60.94375064
          61.04864522 61.15353980 61.25843438 61.36332896 61.46822354 61.57311812
          61.67801270 61.78290728 61.88780186 61.99269644 62.09759102 62.20248560
          62.30738017 62.41227475 62.51716933 62.62206391 62.72695849 62.83185307);
        
        psd
        List<scalar>
        600
        ( 0.00800000 0.00800000 0.00800000 0.00800000 0.00800000 0.00800000
          0.00800000 0.00800000 0.00800000 0.00800000 0.00800000 0.00800000
          0.00800000 0.00800000 0.00800000 0.00800000 0.00800000 0.00800000
          0.00800000 0.00800000 0.00800000 0.00800000 0.00800000 0.00800000
          0.00800000 0.00800000 0.00800000 0.00800000 0.00800000 0.00800000
          0.00800000 0.00800000 0.00800000 0.00800000 0.00800000 0.00800000
          0.00800000 0.00800000 0.00800000 0.00800000 0.00800000 0.00800000
          0.00800000 0.00800000 0.00800000 0.00800000 0.00800000 0.00800000
          0.00800000 0.00800000 0.00800000 0.00800000 0.00800000 0.00800000
          0.00800000 0.00800000 0.00800000 0.00800000 0.00800000 0.00800000
          0.00800000 0.00800000 0.00800000 0.00800000 0.00800000 0.00800000
          0.00800000 0.00800000 0.00800000 0.00800000 0.00800000 0.00800000
          0.00800000 0.00800000 0.00800000 0.00800000 0.00800000 0.00800000
          0.00800000 0.00800000 0.00800000 0.00800000 0.00800000 0.00800000
          0.00800000 0.00800000 0.00800000 0.00800000 0.00800000 0.00800000
          0.00800000 0.00800000 0.00800000 0.00800000 0.00800000 0.00800000
          0.00800000 0.00800000 0.00800000 0.00800000 0.00800000 0.00800000
          0.00800000 0.00800000 0.00800000 0.00800000 0.00800000 0.00800000
          0.00800000 0.00800000 0.00800000 0.00800000 0.00800000 0.00800000
          0.00800000 0.00800000 0.00800000 0.00800000 0.00800000 0.00800000
          0.00800000 0.00800000 0.00800000 0.00800000 0.00800000 0.00800000
          0.00800000 0.00800000 0.00800000 0.00800000 0.00800000 0.00800000
          0.00800000 0.00800000 0.00800000 0.00800000 0.00800000 0.00800000
          0.00800000 0.00800000 0.00800000 0.00800000 0.00800000 0.00800000
          0.00800000 0.00800000 0.00800000 0.00800000 0.00800000 0.00800000
          0.00800000 0.00800000 0.00800000 0.00800000 0.00800000 0.00800000
          0.00800000 0.00800000 0.00800000 0.00800000 0.00800000 0.00800000
          0.00800000 0.00800000 0.00800000 0.00800000 0.00800000 0.00800000
          0.00800000 0.00800000 0.00800000 0.00800000 0.00800000 0.00800000
          0.00800000 0.00800000 0.00800000 0.00800000 0.00800000 0.00800000
          0.00800000 0.00800000 0.00800000 0.00800000 0.00800000 0.00800000
          0.00800000 0.00800000 0.00800000 0.00800000 0.00800000 0.00800000
          0.00800000 0.00800000 0.00800000 0.00800000 0.00800000 0.00800000
          0.00800000 0.00800000 0.00800000 0.00800000 0.00800000 0.00800000
          0.00800000 0.00800000 0.00800000 0.00800000 0.00800000 0.00800000
          0.00800000 0.00800000 0.00800000 0.00800000 0.00800000 0.00800000
          0.00800000 0.00800000 0.00800000 0.00800000 0.00800000 0.00800000
          0.00800000 0.00800000 0.00800000 0.00800000 0.00800000 0.00800000
          0.00800000 0.00800000 0.00800000 0.00800000 0.00800000 0.00800000
          0.00800000 0.00800000 0.00800000 0.00800000 0.00800000 0.00800000
          0.00800000 0.00800000 0.00800000 0.00800000 0.00800000 0.00800000
          0.00800000 0.00800000 0.00800000 0.00800000 0.00800000 0.00800000
          0.00800000 0.00800000 0.00800000 0.00800000 0.00800000 0.00800000
          0.00800000 0.00800000 0.00800000 0.00800000 0.00800000 0.00800000
          0.00800000 0.00800000 0.00800000 0.00800000 0.00800000 0.00800000
          0.00800000 0.00800000 0.00800000 0.00800000 0.00800000 0.00800000
          0.00800000 0.00800000 0.00800000 0.00800000 0.00800000 0.00800000
          0.00800000 0.00800000 0.00800000 0.00800000 0.00800000 0.00800000
          0.00800000 0.00800000 0.00800000 0.00800000 0.00800000 0.00800000
          0.00800000 0.00800000 0.00800000 0.00800000 0.00800000 0.00800000
          0.00800000 0.00800000 0.00800000 0.00800000 0.00800000 0.00800000
          0.00800000 0.00800000 0.00800000 0.00800000 0.00800000 0.00800000
          0.00800000 0.00800000 0.00800000 0.00800000 0.00800000 0.00800000
          0.00800000 0.00800000 0.00800000 0.00800000 0.00800000 0.00800000
          0.00800000 0.00800000 0.00800000 0.00800000 0.00800000 0.00800000
          0.00800000 0.00800000 0.00800000 0.00800000 0.00800000 0.00800000
          0.00800000 0.00800000 0.00800000 0.00800000 0.00800000 0.00800000
          0.00800000 0.00800000 0.00800000 0.00800000 0.00800000 0.00800000
          0.00800000 0.00800000 0.00800000 0.00800000 0.00800000 0.00800000
          0.00800000 0.00800000 0.00800000 0.00800000 0.00800000 0.00800000
          0.00800000 0.00800000 0.00800000 0.00800000 0.00800000 0.00800000
          0.00800000 0.00800000 0.00800000 0.00800000 0.00800000 0.00800000
          0.00800000 0.00800000 0.00800000 0.00800000 0.00800000 0.00800000
          0.00800000 0.00800000 0.00800000 0.00800000 0.00800000 0.00800000
          0.00800000 0.00800000 0.00800000 0.00800000 0.00800000 0.00800000
          0.00800000 0.00800000 0.00800000 0.00800000 0.00800000 0.00800000
          0.00800000 0.00800000 0.00800000 0.00800000 0.00800000 0.00800000
          0.00800000 0.00800000 0.00800000 0.00800000 0.00800000 0.00800000
          0.00800000 0.00800000 0.00800000 0.00800000 0.00800000 0.00800000
          0.00800000 0.00800000 0.00800000 0.00800000 0.00800000 0.00800000
          0.00800000 0.00800000 0.00800000 0.00800000 0.00800000 0.00800000
          0.00800000 0.00800000 0.00800000 0.00800000 0.00800000 0.00800000
          0.00800000 0.00800000 0.00800000 0.00800000 0.00800000 0.00800000
          0.00800000 0.00800000 0.00800000 0.00800000 0.00800000 0.00800000
          0.00800000 0.00800000 0.00800000 0.00800000 0.00800000 0.00800000
          0.00800000 0.00800000 0.00800000 0.00800000 0.00800000 0.00800000
          0.00800000 0.00800000 0.00800000 0.00800000 0.00800000 0.00800000
          0.00800000 0.00800000 0.00800000 0.00800000 0.00800000 0.00800000
          0.00800000 0.00800000 0.00800000 0.00800000 0.00800000 0.00800000
          0.00800000 0.00800000 0.00800000 0.00800000 0.00800000 0.00800000
          0.00800000 0.00800000 0.00800000 0.00800000 0.00800000 0.00800000
          0.00800000 0.00800000 0.00800000 0.00800000 0.00800000 0.00800000
          0.00800000 0.00800000 0.00800000 0.00800000 0.00800000 0.00800000
          0.00800000 0.00800000 0.00800000 0.00800000 0.00800000 0.00800000
          0.00800000 0.00800000 0.00800000 0.00800000 0.00800000 0.00800000
          0.00800000 0.00800000 0.00800000 0.00800000 0.00800000 0.00800000
          0.00800000 0.00800000 0.00800000 0.00800000 0.00800000 0.00800000
          0.00800000 0.00800000 0.00800000 0.00800000 0.00800000 0.00800000
          0.00800000 0.00800000 0.00800000 0.00800000 0.00800000 0.00800000
          0.00800000 0.00800000 0.00800000 0.00800000 0.00800000 0.00800000
          0.00800000 0.00800000 0.00800000 0.00800000 0.00800000 0.00800000
          0.00800000 0.00800000 0.00800000 0.00800000 0.00800000 0.00800000
          0.00800000 0.00800000 0.00800000 0.00800000 0.00800000 0.00800000
          0.00800000 0.00800000 0.00800000 0.00800000 0.00800000 0.00800000
          0.00800000 0.00800000 0.00800000 0.00800000 0.00800000 0.00800000
          0.00800000 0.00800000 0.00800000 0.00800000 0.00800000 0.00800000
          0.00800000 0.00800000 0.00800000 0.00800000 0.00800000 0.00800000
          0.00800000 0.00800000 0.00800000 0.00800000 0.00800000 0.00800000
          0.00800000 0.00800000 0.00800000 0.00800000 0.00800000 0.00800000
          0.00800000 0.00800000 0.00800000 0.00800000 0.00800000 0.00800000);

    }


    outlet
    {
        type            zeroGradient;
    }

    topAndBottom
    {
        type            slip;
    }

    defaultFaces
    {
        type            empty;
    }

}

// ************************************************************************* //
